/*--------------------------------*- C++ -*----------------------------------*\
| =========                 |                                                 |
| \\      /  F ield         | OpenFOAM: The Open Source CFD Toolbox           |
|  \\    /   O peration     | Version:  v2112                                 |
|   \\  /    A nd           | Website:  www.openfoam.com                      |
|    \\/     M anipulation  |                                                 |
\*---------------------------------------------------------------------------*/
FoamFile
{
  version     2.0;
  format      ascii;
  class       dictionary;
  object      controlDict;
}
// * * * * * * * * * * * * * * * * * * * * * * * * * * * * * * * * * * * * * //

application     foamMultiRun;

regionSolvers
{
  metal solid;
}

startTime       0;

stopAt          endTime;

// Defined in parameters
endTime         100;

deltaT          1e-3;

writeControl    adjustableRunTime;

// Defined in parameters
writeInterval   1;
// writeInterval   $deltaT;
// endTime        $deltaT;

purgeWrite      10;

writeFormat     ascii;

writePrecision  10;

writeCompression off;

timeFormat      general;

timePrecision   10;

runTimeModifiable true;

adjustTimeStep  yes;

maxCo           0.5;

maxDeltaT       3600;

OptimisationSwitches
{
  //- Parallel IO file handler
  //  uncollated (default), collated or masterUncollated
  // fileHandler collated; // Error when reading binary files in collated format, needs fixing!
}

functions
{
}

// ************************************************************************* //
