/*--------------------------------*- C++ -*----------------------------------*\
| =========                 |                                                 |
| \\      /  F ield         | OpenFOAM: The Open Source CFD Toolbox           |
|  \\    /   O peration     | Version:  v2206                                 |
|   \\  /    A nd           | Website:  www.openfoam.com                      |
|    \\/     M anipulation  |                                                 |
\*---------------------------------------------------------------------------*/
FoamFile
{
    version     2.0;
    format      ascii;
    class       dictionary;
    object      blockMeshDict;
}
// * * * * * * * * * * * * * * * * * * * * * * * * * * * * * * * * * * * * * //

scale   1;
verbose yes;

#include "meshdata"

blocks
(

    hex (24 25 32 31 0 1 8 7) ($NX0 $N_bl 1) edgeGrading ($GX0 $R_bl 1)
    hex (8 9 2 1 32 33 26 25) ($NX1 $N_bl 1) simpleGrading (1 $r_bl 1)
    hex (9 10 3 2 33 34 27 26) ($N_bl $N_bl 1) simpleGrading ($r_bl $r_bl 1)
    hex (17 10 9 16 41 34 33 40 ) ($NX3 $N_bl 1) simpleGrading (1 $R_bl 1)
    hex (22 17 16 21 46 41 40 45) ($NX0 $N_bl 1) simpleGrading ($GX0 $R_bl 1)
    hex (14 15 8 7 38 39 32 31 ) ($NX0 $NX3 1) simpleGrading ($GX0 1 1)
    hex (15 16 9 8 39 40 33 32) ($NX1 $NX3 1) simpleGrading (1 1 1)
    hex (21 16 15 14 45 40 39 38) ($NX0 $NX1 1) simpleGrading ($GX0 1 1)

);

edges
(

    arc 24 25 origin (0 0 -0.001)
    arc 31 32 origin (0 0 -0.001)
    arc 0 1 origin (0 0 0.001)
    arc 7 8 origin (0 0 0.001)

    arc 25 26 origin (0 0 -0.001)
    arc 32 33 origin (0 0 -0.001)
    arc  1  2  origin  (0 0 0.001)
    arc  8  9  origin  (0 0 0.001)

    arc 2 3 origin (0 0 -0.001)
    arc 26 27 origin (0 0 0.001)
    arc 9 10 origin (0 0 -0.001)
    arc 33 34 origin (0 0 0.001)

    // arc 14 15 origin 1.5 (0 0 -0.001)
    // arc 15 16 origin 1.5 (0 0 -0.001)
    // arc 38 39 origin 1.5 (0 0 0.001)
    // arc 39 40 origin 1.5 (0 0 0.001)



    // arc  4  5  origin  (0 0 0)
    // arc  15  16  origin  (0 0 0)
    // arc 5 6 origin (0 0 0)
    // arc 16 17 origin (0 0 0)

    // arc  3  10  origin 1.5  (0 0 0)
    // arc 14 21 origin  1.5 (0 0 0)
    // arc  9  10  origin 1.5  (0 0 0)
    // arc 20 21 origin  1.5 (0 0 0)

);

faces
(
);

boundary
(

 walls
 {
   type wall;
   faces
     (
        (0 1 24 25)
        (1 2 25 26)
        (2 3 26 27)
      );
 }


wedge
{
  type symmetry;
  faces
  (
    (0 1 7 8)
    (1 2 8 9)
    (2 3 9 10)
    (9 10 16 17)
    (16 17 21 22)
    (7 8 14 15)
    (8 9 15 16)
    (14 15 16 21)
    (24 25 31 32)
    (25 26 32 33)
    (26 27 33 34)
    (33 34 40 41)
    (40 41 45 46)
    (31 32 38 39)
    (32 33 39 40)
    (38 39 40 45)
  );
}

bottom
{
  type wall;
  faces
    (
      (3 10 27 34)
      (10 17 34 41)
      (17 22 41 46)
  );
}

defaultFaces
{
  type empty;
  faces
  (
    ( 0 7 24 31)
    ( 7 14 31 38)
    ( 14 21 38 45)
    ( 21 22 45 46)
  );
}

);


// ************************************************************************* //
