/*--------------------------------*- C++ -*----------------------------------*\
  =========                 |
  \\      /  F ield         | OpenFOAM: The Open Source CFD Toolbox
   \\    /   O peration     | Website:  https://openfoam.org
    \\  /    A nd           | Version:  dev
     \\/     M anipulation  |
\*---------------------------------------------------------------------------*/
FoamFile
{
    format      ascii;
    class       dictionary;
    location    "system";
    object      mirrorMeshDict;
}
// * * * * * * * * * * * * * * * * * * * * * * * * * * * * * * * * * * * * * //

// Mirror the 2D half-mesh about the symmetry axis (x = 0 plane).
// Used when empty_2d=True and mirror=True.

planeType           pointAndNormal;

pointAndNormalDict
{
    point           (0 0 0);
    normal          (1 0 0);
}

planeTolerance  1e-3;

// ************************************************************************* //
