/*--------------------------------*- C++ -*----------------------------------*\
| =========                 |                                                 |
| \\      /  F ield         | OpenFOAM: The Open Source CFD Toolbox           |
|  \\    /   O peration     | Version:  v2206                                 |
|   \\  /    A nd           | Website:  www.openfoam.com                      |
|    \\/     M anipulation  |                                                 |
\*---------------------------------------------------------------------------*/
FoamFile
{
    version     2.0;
    format      ascii;
    class       dictionary;
    object      blockMeshDict;
}
// * * * * * * * * * * * * * * * * * * * * * * * * * * * * * * * * * * * * * //

scale   1;
verbose yes;

#include "GasPhase3D_data"

geometry
{
    sphere
    {
        type   sphere;
        origin (0 0 0);
        radius $R;
    }
}


blocks
(
    hex ( 4 22 23 5 10 16 17 11) ( $NZ $N65 $NZ ) grading (1 $G65 1)  // Inner block

    // Outer blocks
    hex ( 1 4 5 0 7 10 11 6) ( $N01 $N65 $NZ ) grading ($G01 $G65 1)  // x-min
    hex ( 7 10 11 6 13 16 17 12) ( $N01 $N65 $NZ ) grading ($G01 $G65 1)  // x-max
    hex ( 13 16 17 12 19 22 23 18) ( $N01 $N65 $NZ ) grading ($G01 $G65 1)  // y-max
    hex ( 19 22 23 18 1 4 5 0) ( $N01 $N65 $NZ ) grading ($G01 $G65 1)  // z-min
    hex ( 0 5 23 18 6 11 17 12) ( $N01 $NZ $NZ ) grading ($G01 1 1)  // z-max
);

edges
(
    // Outer blocks

    arc  1 7  origin  (0 $ymin 0)
    arc 7 13 origin (0 $ymin 0)
    arc 13 19 origin (0 $ymin 0)
    arc 19 1 origin (0 $ymin 0)

    arc  1 0 origin (0 0 0)
    arc  7 6 origin (0 0 0)
    arc 13 12 origin (0 0 0)
    arc 19 18 origin (0 0 0)

    arc 0 6  origin (0 0 0)
    arc  6 12 origin (0 0 0)
    arc 12 18 origin (0 0 0)
    arc 18 0 origin (0 0 0)

    arc 4 5  origin 1.5 (0 0 0)
    arc 10 11 origin 1.5 (0 0 0)
    arc 16 17 origin 1.5 (0 0 0)
    arc 22 23 origin 1.5 (0 0 0)

    // arc 4 5  origin  (0 0 0)
    // arc 10 11 origin  (0 0 0)
    // arc 16 17 origin  (0 0 0)
    // arc 22 23 origin  (0 0 0)

    arc 4 10  origin 1.5 (0 $ymin 0)
    arc 10 16 origin 1.5 (0 $ymin 0)
    arc 16 22 origin 1.5 (0 $ymin 0)
    arc 22 4 origin 1.5 (0 $ymin 0)

    // arc 4 10  origin  (0 $ymin 0)
    // arc 10 16 origin  (0 $ymin 0)
    // arc 16 22 origin  (0 $ymin 0)
    // arc 22 4 origin  (0 $ymin 0)

    arc 5 11  origin 1.5 (0 0 0)
    arc 11 17 origin 1.5 (0 0 0)
    arc 17 23 origin 1.5 (0 0 0)
    arc 23 5 origin 1.5 (0 0 0)

    // arc 5 11  origin  (0 0 0)
    // arc 11 17 origin  (0 0 0)
    // arc 17 23 origin  (0 0 0)
    // arc 23 5 origin  (0 0 0)

);

faces
(
    // // // Outer blocks

    project (1 0) sphere  // block 1: x-min
    project (2 0) sphere  // block 2: x-max
    project (3 0) sphere  // block 3: y-max
    project (4 0) sphere  // block 4: z-min
    project (5 0) sphere  // block 5: z-max

);

boundary
  (
  walls
{
  type wall;
  faces
    (
    (7 13 12 6)
    ( 13 19 18 12)
    ( 19 1 0 18)
    ( 1 7 6 0)
    (0 6 12 18)
    );
}
  bottom
{
  type    wall;
  faces
    (
    (1 7 10 4)  // block 1: x-min
    (7 13 16 10)  // block 2: x-max
    (13 19 22 16)  // block 3: y-max
    (19 1 4 22)  // block 4: z-min
    (4 10 16 22)  // block 5: z-max
    );
}
  outlet
  {
    type    patch;
    faces
      (
        );
  }
  );


// ************************************************************************* //
