FoamFile
{
    version     2.0;
    format      ascii;
    class       dictionary;
    object      blockMeshDict;
}

convertToMeters 1.0;

geometry
{
    sphere
    {
type	sphere;
        origin (0 0 0);
        radius 0.62;
    }
}
vertices
(
    (0.1879157140164519 0.5601565574474463 -0.18791571401645188)
    (0.37190991067203555 0.3282773776668706 -0.3719099106720355)
    (0.39609050029720116 -0.26575295134509014 -0.3960905002972011)
    (0.35648145026748107 -0.23917765621058107 -0.356481450267481)
    (0.28422866980490363 0.3282773776668706 -0.2842286698049036)
    (0.16912414261480668 0.5041409017027016 -0.16912414261480666)
    (-0.18791571401645188 0.5601565574474463 -0.1879157140164519)
    (-0.3719099106720355 0.3282773776668706 -0.37190991067203555)
    (-0.3960905002972011 -0.26575295134509014 -0.39609050029720116)
    (-0.356481450267481 -0.23917765621058107 -0.35648145026748107)
    (-0.2842286698049036 0.3282773776668706 -0.28422866980490363)
    (-0.16912414261480666 0.5041409017027016 -0.16912414261480668)
    (-0.18791571401645193 0.5601565574474463 0.18791571401645188)
    (-0.3719099106720356 0.3282773776668706 0.3719099106720355)
    (-0.3960905002972012 -0.26575295134509014 0.3960905002972011)
    (-0.3564814502674811 -0.23917765621058107 0.356481450267481)
    (-0.2842286698049037 0.3282773776668706 0.2842286698049036)
    (-0.1691241426148067 0.5041409017027016 0.16912414261480666)
    (0.18791571401645185 0.5601565574474463 0.18791571401645193)
    (0.37190991067203544 0.3282773776668706 0.3719099106720356)
    (0.39609050029720105 -0.26575295134509014 0.3960905002972012)
    (0.35648145026748096 -0.23917765621058107 0.3564814502674811)
    (0.2842286698049036 0.3282773776668706 0.2842286698049037)
    (0.16912414261480663 0.5041409017027016 0.1691241426148067)
);

blocks
(
    hex (16 22 4 10 17 23 5 11) (25 25 38.0) edgeGrading (1 1 1 1 1 1 1 1
			((0.24702289060275037 0.3684210526315789 12.839184645488633) (0.7529771093972496 0.631578947368421 1))
			((0.24702289060275034 0.3684210526315789 12.839184645488633) (0.7529771093972497 0.631578947368421 1))
			((0.24702289060275037 0.3684210526315789 12.839184645488633) (0.7529771093972496 0.631578947368421 1))
			((0.24702289060275037 0.3684210526315789 12.839184645488633) (0.7529771093972496 0.631578947368421 1)))
    hex (10 4 1 7 11 5 0 6) (25 19.0 38.0) edgeGrading (1 1 1 1
			((0.5226135223593293 0.2631578947368421 1.0) (0.47738647764067066 0.7368421052631579 0.07788656582264941))
			((0.5226135223593293 0.2631578947368421 1.0) (0.47738647764067066 0.7368421052631579 0.07788656582264941))
			((0.045227044718659244 0.2631578947368421 1.0) (0.9547729552813408 0.7368421052631579 0.07788656582264941))
			((0.045227044718659244 0.2631578947368421 1.0) (0.9547729552813408 0.7368421052631579 0.07788656582264941))
			((0.24702289060275037 0.3684210526315789 12.839184645488633) (0.7529771093972496 0.631578947368421 1))
			((0.24702289060275037 0.3684210526315789 12.839184645488633) (0.7529771093972496 0.631578947368421 1))
			((0.16984279330191976 0.3684210526315789 10.699320537907195) (0.8301572066980802 0.631578947368421 1))
			((0.16984279330191976 0.3684210526315789 12.839184645488633) (0.8301572066980802 0.631578947368421 1)))
    hex (22 19 1 4 23 18 0 5) (19.0 25 38.0) edgeGrading (
			((0.5226135223593292 0.2631578947368421 1.0) (0.4773864776406708 0.7368421052631579 0.07788656582264941))
			((0.5226135223593293 0.2631578947368421 1.0) (0.47738647764067066 0.7368421052631579 0.07788656582264941))
			((0.045227044718659244 0.2631578947368421 1.0) (0.9547729552813408 0.7368421052631579 0.07788656582264941))
			((0.045227044718659244 0.2631578947368421 1.0) (0.9547729552813408 0.7368421052631579 0.07788656582264941)) 1 1 1 1
			((0.24702289060275034 0.3684210526315789 12.839184645488633) (0.7529771093972497 0.631578947368421 1))
			((0.1698427933019198 0.3684210526315789 12.839184645488633) (0.8301572066980802 0.631578947368421 1))
			((0.16984279330191976 0.3684210526315789 10.699320537907195) (0.8301572066980802 0.631578947368421 1))
			((0.24702289060275037 0.3684210526315789 12.839184645488633) (0.7529771093972496 0.631578947368421 1)))
    hex (13 19 22 16 12 18 23 17) (25 19.0 38.0) edgeGrading (1 1 1 1
			((0.47738647764067066 0.7368421052631579 12.839184645488633) (0.5226135223593293 0.2631578947368421 1))
			((0.4773864776406708 0.7368421052631579 12.839184645488633) (0.5226135223593292 0.2631578947368421 1))
			((0.9547729552813408 0.7368421052631579 12.839184645488633) (0.045227044718659244 0.2631578947368421 1))
			((0.9547729552813408 0.7368421052631579 12.839184645488633) (0.045227044718659244 0.2631578947368421 1))
			((0.16984279330191976 0.3684210526315789 12.839184645488633) (0.8301572066980802 0.631578947368421 1))
			((0.1698427933019198 0.3684210526315789 12.839184645488633) (0.8301572066980802 0.631578947368421 1))
			((0.24702289060275034 0.3684210526315789 12.839184645488633) (0.7529771093972497 0.631578947368421 1))
			((0.24702289060275037 0.3684210526315789 12.839184645488633) (0.7529771093972496 0.631578947368421 1)))
    hex (13 16 10 7 12 17 11 6) (19.0 25 38.0) edgeGrading (
			((0.47738647764067066 0.7368421052631579 12.839184645488633) (0.5226135223593293 0.2631578947368421 1))
			((0.47738647764067066 0.7368421052631579 12.839184645488633) (0.5226135223593293 0.2631578947368421 1))
			((0.9547729552813408 0.7368421052631579 12.839184645488633) (0.045227044718659244 0.2631578947368421 1))
			((0.9547729552813408 0.7368421052631579 12.839184645488633) (0.045227044718659244 0.2631578947368421 1)) 1 1 1 1
			((0.16984279330191976 0.3684210526315789 12.839184645488633) (0.8301572066980802 0.631578947368421 1))
			((0.24702289060275037 0.3684210526315789 12.839184645488633) (0.7529771093972496 0.631578947368421 1))
			((0.24702289060275037 0.3684210526315789 12.839184645488633) (0.7529771093972496 0.631578947368421 1))
			((0.16984279330191976 0.3684210526315789 12.839184645488633) (0.8301572066980802 0.631578947368421 1)))
    hex (17 23 5 11 12 18 0 6) (25 25 19.0) edgeGrading (1 1 1 1 1 1 1 1
			((0.045227044718659244 0.2631578947368421 1.0) (0.9547729552813408 0.7368421052631579 0.07788656582264941))
			((0.045227044718659244 0.2631578947368421 1.0) (0.9547729552813408 0.7368421052631579 0.07788656582264941))
			((0.045227044718659244 0.2631578947368421 1.0) (0.9547729552813408 0.7368421052631579 0.07788656582264941))
			((0.045227044718659244 0.2631578947368421 1.0) (0.9547729552813408 0.7368421052631579 0.07788656582264941)))
);

edges
(
    arc 1 7 origin (0 0.32 0)
    arc 4 10 origin (0 0.32 0)
    arc 7 13 origin (0 0.32 0)
    arc 10 16 origin (0 0.32 0)
    arc 13 19 origin (0 0.32 0)
    arc 16 22 origin (0 0.32 0)
    arc 19 1 origin (0 0.32 0)
    arc 22 4 origin (0 0.32 0)
    arc 0 6 origin (0 0 0)
    arc 5 11 origin (0 0 0)
    arc 6 12 origin (0 0 0)
    arc 11 17 origin (0 0 0)
    arc 12 18 origin (0 0 0)
    arc 17 23 origin (0 0 0)
    arc 18 0 origin (0 0 0)
    arc 23 5 origin (0 0 0)
    arc 1 0 origin (0 0 0)
    arc 4 5 origin (0 0 0)
    arc 7 6 origin (0 0 0)
    arc 10 11 origin (0 0 0)
    arc 13 12 origin (0 0 0)
    arc 16 17 origin (0 0 0)
    arc 19 18 origin (0 0 0)
    arc 22 23 origin (0 0 0)
);

faces
(
    project (0 6 12 18) sphere
    project (1 0 18 19) sphere
    project (1 7 6 0) sphere
    project (6 7 13 12) sphere
    project (12 13 19 18) sphere
);

boundary
(
    bottom
    {
        type wall;
        faces
        (
            (10 16 4 22)
            (7 13 10 16)
            (4 22 19 1)
            (16 13 19 22)
            (7 10 4 1)
        );
    }
);

mergePatchPairs
(
);
