/*--------------------------------*- C++ -*----------------------------------*\
|j =========                 |                                                 |
| \\      /  F ield         | OpenFOAM: The Open Source CFD Toolbox           |
|  \\    /   O peration     | Version:  v2112                                 |
|   \\  /    A nd           | Website:  www.openfoam.com                      |
|    \\/     M anipulation  |                                                 |
\*---------------------------------------------------------------------------*/
FoamFile
{
    version     2.0;
    format      ascii;
    class       dictionary;
    object      fvSchemes;
}
// * * * * * * * * * * * * * * * * * * * * * * * * * * * * * * * * * * * * * //

ddtSchemes
{
    default         CrankNicolson 0.7;
}

gradSchemes
{
  default cellMDLimited Gauss linear 0;
  grad(U) cellMDLimited Gauss linear 0.333;
}

divSchemes
{
    default         none;
    div(phi,U)      Gauss linearUpwindV grad(U);
    div(phi,h)      Gauss linearUpwind grad(h);
    div(phi,K)      Gauss linearUpwind grad(K);
    div(meshPhi,p)  Gauss linear;
    turbulence      Gauss upwind;
    // turbulence      Gauss linearUpwind grad(U);
    div(phi,k)      $turbulence;
    div(phi,omega)  $turbulence;
    div(phi,epsilon) $turbulence;
    div(phi,f)  $turbulence;
    div(phi,phit)  $turbulence;
    div(((rho*nuEff)*dev2(T(grad(U))))) Gauss linear;
}

gradLimiter 1;

laplacianSchemes
{
    default         Gauss linear limited $gradLimiter;
}

interpolationSchemes
{
    default         linear;
}

snGradSchemes
{
    default          limited $gradLimiter;
}

// Important for k-omega-SST
wallDist
{
    method meshWave;
}
