/*--------------------------------*- C++ -*----------------------------------*\
| =========                 |                                                 |
| \\      /  F ield         | OpenFOAM: The Open Source CFD Toolbox           |
|  \\    /   O peration     | Version:  2.1.0                                 |
|   \\  /    A nd           | Web:      www.OpenFOAM.org                      |
|    \\/     M anipulation  |                                                 |
\*---------------------------------------------------------------------------*/
FoamFile
{
  version     2.0;
  format      ascii;
  class       dictionary;
  object      laplacianSmoothDict;
}

// * * * * * * * * * * * * * * * * * * * * * * * * * * * * * * * * * * * * * //

// Prevent moving points in the boundary normal direction, for points a distance from the boundaries.
// Not working properly. Instead, refineWallLayer is used after smoothing.
preserveBoundaryLayer -1;//#eval {2*$cell_size};
iters 5;
smoothFactor 1;

#include "meshdata"

constrainedPoints
  (

    // {
    //   type set;
    //   set const;
    //   constraintType fixed;
    // }

    // {
    //   type set;
    //   set yconst;
    //   constraintType constY;
    // }

    // {
    //   type set;
    //   set rconst;
    //   constraintType constRadiusXY;
    // }
    {
      type patch;
      patch outlet;
      constraintType fixed;
    }


    // {
    //   type patch;
    //   patch cyclic_neg_temp;
    //   constraintType fixed;
    // }

    // {
    //   type patch;
    //   patch cyclic_pos_temp;
    //   constraintType fixed;
    // }
    {
      type patch;
      patch walls;
      constraintType fixed;
    }
    {
      type patch;
      patch bottom;
      constraintType constY;
    }
    {
      type patch;
      patch cyclic_couple1;
      constraintType constZ;
    }
    {
      type patch;
      patch cyclic_couple2;
      constraintType constX;
    }
    // {
    //   type set;
    //   set outletPointSet;
    //   constraintType fixed;
    // }

    // {
    //   type patch;
    //   patch defaultFaces;
    //   constraintType constX;
    // }



  );


// ************************************************************************* //
