/*--------------------------------*- C++ -*----------------------------------*\
| =========                 |                                                 |
| \\      /  F ield         | OpenFOAM: The Open Source CFD Toolbox           |
|  \\    /   O peration     | Version:  2.1.0                                 |
|   \\  /    A nd           | Web:      www.OpenFOAM.org                      |
|    \\/     M anipulation  |                                                 |
\*---------------------------------------------------------------------------*/
FoamFile
{
    version     2.0;
    format      ascii;
    class       dictionary;
    object      topoSetDict;
}

// * * * * * * * * * * * * * * * * * * * * * * * * * * * * * * * * * * * * * //

#include "meshdata"

actions
(

{
  action new;
  name cellsToKeep;
  type cellSet;
  source cylinderToCell;
  p1  (0 #eval{ $y_outlet - 0.01} 0);
  p2  (0 $y_outlet 0);
  radius $outlet_radius;

}

{
  action invert;
  name cellsToKeep;
  type cellSet;
}


);

// ************************************************************************* //
